158
Coordinates from ORCA-job bBiCyDNH_orca
  H   -31.68210169000000    -29.81907019000000    -13.47406073000000
  C   -21.52248312000000    -27.35305765000000     -9.46202330000000
  C   -21.94602194000000    -28.16854683000000     -8.24945592000000
  C   -23.45806046000000    -28.29457257000000     -8.20958302000000
  C   -24.14340772000000    -26.93859824000000     -8.34518961000000
  C   -23.55650684000000    -26.13816986000000     -9.50971880000000
  C   -24.03013818000000    -24.70228302000000     -9.55843540000000
  O   -21.33425425000000    -29.41982110000000     -8.30389522000000
  O   -23.79032627000000    -28.92469251000000     -7.01545643000000
  O   -25.50201071000000    -27.20287469000000     -8.57255186000000
  O   -22.15352915000000    -26.11925964000000     -9.40830894000000
  O   -23.75013608000000    -24.17550208000000    -10.82659866000000
  H   -20.45207726000000    -27.15485979000000     -9.43078961000000
  H   -21.61858390000000    -27.62442028000000     -7.35878668000000
  H   -23.76721866000000    -28.89859926000000     -9.06595687000000
  H   -24.01492556000000    -26.38684702999999     -7.40938787000000
  H   -23.85893455000000    -26.62701966000000    -10.43574024000000
  H   -25.10080020000000    -24.66709908000000     -9.36019962000000
  H   -23.50980572000000    -24.13855779000000     -8.78005661000000
  H   -21.68680977000000    -29.95923694000000     -7.60986932000000
  H   -24.73526488000000    -28.98737597000000     -6.92253032000000
  H   -23.85497727000000    -23.23735610000000    -10.82291033000000
  C   -20.89959191000000    -29.03395198000000    -14.44774613000000
  C   -20.18544715000000    -29.81834676000000    -13.35600963000000
  C   -20.89248349000000    -29.61899329000000    -12.03231856000000
  C   -21.02316625000000    -28.13434084000000    -11.72187040000000
  C   -21.64069703000000    -27.37313234000000    -12.89658340000000
  C   -21.57861023000000    -25.85825875000000    -12.74994024000000
  O   -20.12488128000000    -31.16245889000000    -13.72134773000000
  O   -21.86434467000000    -28.04377130000000    -10.60099156000000
  O   -20.97461661000000    -27.70277520000000    -14.09275484000000
  O   -22.62848675000000    -25.22541951000000    -13.41384901000000
  H   -20.31127731000000    -29.06568596000000    -15.35996671000000
  H   -19.17505775000000    -29.40610606000000    -13.27344587000000
  H   -20.03314654000000    -27.73363091000000    -11.48486906000000
  H   -22.68705487000000    -27.66928132000000    -12.95734699000000
  H   -21.58621200000000    -25.58816755000000    -11.69725254000000
  H   -20.63090097000000    -25.52679671000000    -13.17781922000000
  H   -19.83033305000000    -31.66895998000000    -12.97753323000000
  H   -23.22858232999999    -24.88767521000000    -12.76446658000000
  C   -24.14376464000000    -30.57083552000000    -18.21523024000000
  C   -22.67695880000000    -30.97322954000000    -18.06780438000000
  C   -22.23926102000000    -30.97279188000000    -16.61645466000000
  C   -22.60096308000000    -29.63057905000000    -15.99175288000000
  C   -24.12112269000000    -29.46933215000000    -16.10679059000000
  C   -24.60251705000000    -28.20389107000000    -15.41571536000000
  O   -22.49630173000000    -32.22761501000000    -18.65183782000000
  O   -20.87173893000000    -31.24521466000000    -16.59472252000000
  O   -22.15500765000000    -29.58115834000000    -14.66647271000000
  O   -24.40631775000000    -29.41405282000000    -17.49049393000000
  H   -24.36058417000000    -30.33839046000000    -19.25081862000000
  H   -22.07729974000000    -30.22546264000000    -18.59592382000000
  H   -22.78554527000000    -31.75246724000000    -16.07981544000000
  H   -22.13633416000000    -28.82162492000000    -16.56160688000000
  H   -24.62424657000000    -30.32283345999999    -15.66640664000000
  H   -21.59176482000000    -32.48046396000000    -18.53105126000000
  H   -20.59529416000000    -31.46906312000000    -15.71311184000000
  C   -28.29055596000000    -33.82800149000000    -18.25213463000000
  C   -26.98220898000000    -34.58884585000000    -18.37762725000000
  C   -25.83128983000000    -33.70930100000000    -17.92797331000000
  C   -25.83262347000000    -32.31941194000000    -18.56609522000000
  C   -27.23867399000000    -31.70473583000000    -18.56211142000000
  C   -27.48172628000000    -30.53024563000000    -19.50712782000000
  O   -27.05260977000000    -35.75591373000000    -17.62176304000000
  O   -24.65020210000000    -34.39467031000000    -18.20507350000000
  O   -24.94442748000000    -31.59603319000000    -17.75596166000000
  O   -28.18536443000000    -32.66365733000000    -18.99075362000000
  O   -26.55561615000000    -29.50294430000000    -19.42678690000000
  H   -29.10953675000000    -34.40249806000000    -18.68646045000000
  H   -26.85051933000000    -34.82377602000000    -19.43812232000000
  H   -25.93866440000000    -33.55296225000000    -16.85266495000000
  H   -25.45040208000000    -32.39451241000000    -19.58779122000000
  H   -27.44474813000000    -31.40338095000000    -17.53504216000000
  H   -27.45216355000000    -30.90696770000000    -20.52914908000000
  H   -28.49783182000000    -30.17197154000000    -19.32015992000000
  H   -26.19788496000000    -36.16286899000000    -17.62163871000000
  H   -23.91020826999999    -33.80219800000000    -18.13694676000000
  H   -26.43676743000000    -29.19030842000000    -18.54062305000000
  C   -31.24646208000000    -32.14632397000000    -14.24106942000000
  C   -30.80063968000000    -33.58630030000000    -14.04593247000000
  C   -29.57829575000000    -33.85546549000000    -14.89698674000000
  C   -29.81243398000000    -33.48637659000000    -16.36010173000000
  C   -30.42189388000000    -32.08198267000000    -16.48456966000000
  C   -30.99775330000000    -31.74140172000000    -17.84405615000000
  O   -30.55866935000000    -33.80736198000000    -12.69049490000000
  O   -29.24133358000000    -35.19933910000000    -14.76511914000000
  O   -28.53026935000000    -33.56750861000000    -16.92011900000000
  O   -31.48708125000000    -31.92116329000000    -15.57718539000000
  O   -31.11266065000000    -30.35082856000000    -17.92140989000000
  H   -32.19231329000000    -31.98177235000000    -13.73402278000000
  H   -31.61805316000000    -34.22528278999999    -14.39298326000000
  H   -28.76677668000000    -33.22256900000000    -14.53111332000000
  H   -30.47216384000000    -34.23386030000000    -16.81339729000000
  H   -29.62929678000000    -31.37085636999999    -16.26063343000000
  H   -30.35216729000000    -32.11546666000000    -18.63321007000000
  H   -31.97503013000000    -32.22605229000000    -17.92471474000000
  H   -30.12987115000000    -34.64505988000000    -12.58459793000000
  H   -28.49388175000000    -35.38967795000000    -15.31869274000000
  H   -31.53349055000000    -30.10326407000000    -18.72862000000000
  C   -30.41213774000000    -27.97915330000000    -11.17192128000000
  C   -31.33340132000000    -29.16529672000000    -10.88179876000000
  C   -30.85268177000000    -30.42393078000000    -11.57709279000000
  C   -30.71894817000000    -30.13978124000000    -13.06726507000000
  C   -29.71479068000000    -28.99849161000000    -13.23222364000000
  O   -31.42243791000000    -29.35443057000000     -9.50327621000000
  O   -31.76060189000000    -31.44045441000000    -11.28597189000000
  O   -30.27769616000000    -31.28382499000000    -13.73959320000000
  O   -30.20678337000000    -27.87253232999999    -12.53826729000000
  H   -30.88981080000000    -27.05558446000000    -10.86791518000000
  H   -32.31916875000000    -28.91176590000000    -11.28326614000000
  H   -29.86313092000000    -30.68534835000000    -11.19365029000000
  H   -31.96748153000000    -30.11310496999999     -9.34342483000000
  H   -31.37413726000000    -32.28816617000000    -11.47630749000000
  C   -26.50777051000000    -26.61325752999999     -7.83561777000000
  C   -27.44686453000000    -27.67953406000000     -7.30267797000000
  C   -28.16614639000000    -28.37176078000000     -8.44351053000000
  C   -28.84570317000000    -27.38161545000000     -9.38821661000000
  C   -27.89195354000000    -26.23083411000000     -9.75466047000000
  C   -28.55426006000000    -24.98849533000000    -10.34588483000000
  O   -26.72227298000000    -28.59695374000000     -6.54166688000000
  O   -29.06378900000000    -29.26109343000000     -7.86145959000000
  O   -29.19390804000000    -28.13184997000000    -10.52834310000000
  O   -27.24160303000000    -25.73074863000000     -8.60560175000000
  O   -29.41822584000000    -25.23385275000000    -11.40001207000000
  H   -26.09187204000000    -26.03275926000000     -7.01301755000000
  H   -28.19006529000000    -27.17569773000000     -6.67843359000000
  H   -27.42195176000000    -28.91196498000000     -9.03390228000000
  H   -29.74153245999999    -26.98601752000000     -8.90333067000000
  H   -27.15435449000000    -26.63401369000000    -10.45231709000000
  H   -29.13745146000000    -24.51437883000000     -9.55745278000000
  H   -27.76177803000000    -24.28865345000000    -10.62571984000000
  H   -27.29998007000000    -29.30844330000000     -6.30087939000000
  H   -29.77732597000000    -29.46064593000000     -8.45677773000000
  H   -28.97113684000000    -25.61901625000000    -12.13931121000000
  C   -27.88036500000000    -26.67760149000000    -15.10788773000000
  C   -26.51835504000000    -26.60649021000000    -15.42218889000000
  N   -28.18588630000000    -28.02281889000000    -14.94432220000000
  N   -26.02878659000000    -27.91273873000000    -15.47029623000000
  C   -27.03935984000000    -28.78366477000000    -15.10304445000000
  H   -24.09079396000000    -27.35270419000000    -15.85505044000000
  H   -24.28907193000000    -28.27329506000000    -14.37615939000000
  C   -28.65398625000000    -25.54262909000000    -14.99310072000000
  C   -25.90035380000000    -25.38754929000000    -15.60489750000000
  C   -29.48985306000000    -28.59109790000000    -14.68660417000000
  H   -28.76361320000000    -29.30940888000000    -12.79903143000000
  H   -30.24536388000000    -27.86152932000000    -14.96541115000000
  H   -29.63227664000000    -29.44635858000000    -15.33847834000000
  O   -20.17051968000000    -30.29123580000000    -11.05004552000000
  H   -21.90130164000000    -30.03030486000000    -12.11852898000000
  H   -20.59640192000000    -30.19046231000000    -10.20584222000000
  N   -26.88987548000000    -30.02891868000000    -14.94365468000000
  H   -27.73109769000000    -30.48909615000000    -14.65302922000000
  C   -26.68165823000000    -24.23245301000000    -15.49229435000000
  C   -28.03109761000000    -24.30661925000000    -15.19745615000000
  H   -26.21452006000000    -23.26731997000000    -15.63531205000000
  H   -24.84313234000000    -25.30954879000000    -15.80944629000000
  H   -28.61577490000000    -23.40043019000000    -15.11247261000000
  H   -29.70315182000000    -25.59744458000000    -14.73973391000000
