158
Coordinates from ORCA-job bBiCyDNH_opt_orca
  H   -31.68210169010988    -29.81907019261863    -13.47406072818481
  C   -21.52248311909590    -27.35305765406299     -9.46202330101260
  C   -21.94602194012735    -28.16854682910495     -8.24945591736053
  C   -23.45806046346975    -28.29457257304337     -8.20958301586805
  C   -24.14340772471060    -26.93859823588797     -8.34518961303134
  C   -23.55650684435386    -26.13816985918205     -9.50971879752744
  C   -24.03013818006265    -24.70228301978640     -9.55843540131634
  O   -21.33425425258970    -29.41982110369000     -8.30389522236241
  O   -23.79032627206579    -28.92469251261998     -7.01545643333836
  O   -25.50201071418219    -27.20287469047818     -8.57255185819800
  O   -22.15352915316283    -26.11925964396060     -9.40830893904511
  O   -23.75013608441994    -24.17550207932642    -10.82659866115002
  H   -20.45207725995180    -27.15485978607865     -9.43078961236311
  H   -21.61858389584540    -27.62442028326553     -7.35878667810987
  H   -23.76721865790611    -28.89859925684901     -9.06595686575549
  H   -24.01492555654442    -26.38684702863075     -7.40938787414312
  H   -23.85893455296548    -26.62701965666488    -10.43574024304000
  H   -25.10080020115853    -24.66709907877059     -9.36019961998747
  H   -23.50980571853102    -24.13855779068823     -8.78005660887847
  H   -21.68680977175410    -29.95923693620943     -7.60986932097904
  H   -24.73526487820004    -28.98737596645335     -6.92253032250422
  H   -23.85497727043168    -23.23735610467666    -10.82291033013806
  C   -20.89959190843743    -29.03395197748273    -14.44774613268935
  C   -20.18544715191739    -29.81834676167212    -13.35600963309181
  C   -20.89248348582914    -29.61899328737142    -12.03231855974731
  C   -21.02316625281814    -28.13434084453689    -11.72187039589471
  C   -21.64069703373570    -27.37313234149037    -12.89658339596561
  C   -21.57861022534416    -25.85825874768964    -12.74994023640415
  O   -20.12488127914434    -31.16245888591848    -13.72134772663075
  O   -21.86434467127044    -28.04377130438643    -10.60099155949559
  O   -20.97461661452999    -27.70277520316287    -14.09275484327910
  O   -22.62848674734719    -25.22541950923650    -13.41384900801814
  H   -20.31127731269943    -29.06568596087707    -15.35996671480617
  H   -19.17505775429400    -29.40610605546046    -13.27344587052001
  H   -20.03314653942148    -27.73363091157224    -11.48486905801912
  H   -22.68705487042050    -27.66928132005419    -12.95734698618624
  H   -21.58621199825494    -25.58816755221675    -11.69725253751481
  H   -20.63090096759145    -25.52679670697304    -13.17781921984641
  H   -19.83033305338028    -31.66895997918058    -12.97753323316451
  H   -23.22858233145524    -24.88767521277563    -12.76446658313197
  C   -24.14376464326923    -30.57083551946670    -18.21523023961178
  C   -22.67695880437365    -30.97322953728921    -18.06780437948179
  C   -22.23926101782289    -30.97279187907045    -16.61645465567902
  C   -22.60096308396813    -29.63057905114760    -15.99175287639216
  C   -24.12112269380752    -29.46933214644399    -16.10679058753319
  C   -24.60251705386771    -28.20389106965148    -15.41571535619386
  O   -22.49630173264238    -32.22761500766586    -18.65183782490335
  O   -20.87173892706118    -31.24521465723170    -16.59472252100661
  O   -22.15500765464720    -29.58115834450712    -14.66647270677451
  O   -24.40631774851082    -29.41405282026323    -17.49049392982771
  H   -24.36058416855616    -30.33839046068945    -19.25081862454872
  H   -22.07729973778329    -30.22546263599241    -18.59592381524523
  H   -22.78554527358145    -31.75246723522988    -16.07981544476698
  H   -22.13633416211952    -28.82162492437733    -16.56160688023743
  H   -24.62424657436461    -30.32283346476084    -15.66640664272099
  H   -21.59176482438605    -32.48046395969227    -18.53105125712231
  H   -20.59529416107990    -31.46906312218294    -15.71311184485130
  C   -28.29055596146438    -33.82800149313000    -18.25213462858942
  C   -26.98220898320647    -34.58884585036097    -18.37762724587802
  C   -25.83128983420389    -33.70930099833365    -17.92797331101610
  C   -25.83262347430167    -32.31941194076218    -18.56609522294891
  C   -27.23867398914568    -31.70473582826113    -18.56211142262263
  C   -27.48172627777237    -30.53024563300940    -19.50712781556079
  O   -27.05260976955777    -35.75591373417394    -17.62176303872644
  O   -24.65020209994929    -34.39467030661404    -18.20507350005780
  O   -24.94442747813548    -31.59603319483299    -17.75596166478290
  O   -28.18536442706175    -32.66365732556822    -18.99075362171343
  O   -26.55561614901977    -29.50294429829074    -19.42678689952038
  H   -29.10953674937218    -34.40249805823100    -18.68646045053971
  H   -26.85051933292131    -34.82377602121059    -19.43812232008862
  H   -25.93866439854372    -33.55296224617996    -16.85266494736064
  H   -25.45040208285887    -32.39451241001491    -19.58779121738797
  H   -27.44474813468261    -31.40338094698856    -17.53504216201084
  H   -27.45216355374900    -30.90696769577471    -20.52914907902114
  H   -28.49783182369661    -30.17197153859761    -19.32015991911468
  H   -26.19788495889260    -36.16286899392247    -17.62163870840207
  H   -23.91020826601886    -33.80219800102587    -18.13694675994568
  H   -26.43676742552906    -29.19030841715604    -18.54062304763091
  C   -31.24646207509453    -32.14632397490976    -14.24106941530922
  C   -30.80063967737344    -33.58630030115831    -14.04593246585488
  C   -29.57829575072028    -33.85546548586396    -14.89698674485233
  C   -29.81243398441618    -33.48637659301203    -16.36010173061886
  C   -30.42189388176306    -32.08198267000071    -16.48456966283636
  C   -30.99775330399990    -31.74140172057942    -17.84405615008667
  O   -30.55866935288312    -33.80736198121496    -12.69049489858299
  O   -29.24133358411282    -35.19933909663305    -14.76511914476419
  O   -28.53026935200731    -33.56750860690735    -16.92011899964224
  O   -31.48708125386367    -31.92116328886210    -15.57718539319471
  O   -31.11266064675798    -30.35082856334515    -17.92140988819773
  H   -32.19231328632289    -31.98177235360397    -13.73402278317274
  H   -31.61805315718232    -34.22528278831349    -14.39298326279001
  H   -28.76677667949585    -33.22256899531877    -14.53111331678201
  H   -30.47216384193100    -34.23386030312590    -16.81339728995471
  H   -29.62929678081961    -31.37085636682368    -16.26063342936833
  H   -30.35216728755188    -32.11546665664179    -18.63321007049719
  H   -31.97503012673531    -32.22605228969483    -17.92471474139395
  H   -30.12987114817042    -34.64505987893139    -12.58459792575568
  H   -28.49388174770412    -35.38967794947989    -15.31869273513146
  H   -31.53349055480192    -30.10326407168162    -18.72862000124899
  C   -30.41213774277700    -27.97915329528764    -11.17192128145362
  C   -31.33340131630433    -29.16529671713050    -10.88179875913311
  C   -30.85268177314680    -30.42393078447284    -11.57709279108425
  C   -30.71894816595027    -30.13978124282671    -13.06726507108665
  C   -29.71479067687828    -28.99849161291948    -13.23222363656338
  O   -31.42243790709185    -29.35443057108709     -9.50327620776123
  O   -31.76060189246083    -31.44045441089282    -11.28597189171371
  O   -30.27769616431222    -31.28382498953109    -13.73959320041568
  O   -30.20678336962968    -27.87253232554685    -12.53826728740607
  H   -30.88981080154507    -27.05558445643222    -10.86791517564596
  H   -32.31916875490935    -28.91176589719119    -11.28326614090100
  H   -29.86313091968396    -30.68534834805470    -11.19365029227077
  H   -31.96748153240038    -30.11310497212662     -9.34342483319852
  H   -31.37413726271238    -32.28816616524265    -11.47630749135519
  C   -26.50777051262628    -26.61325752595286     -7.83561776714371
  C   -27.44686452913877    -27.67953406154516     -7.30267797239534
  C   -28.16614639295465    -28.37176077593137     -8.44351052523710
  C   -28.84570317201972    -27.38161545127955     -9.38821661106565
  C   -27.89195354251323    -26.23083411474652     -9.75466046524301
  C   -28.55426005628762    -24.98849532539531    -10.34588483456240
  O   -26.72227298388369    -28.59695373883007     -6.54166687557050
  O   -29.06378899968035    -29.26109343307820     -7.86145958789157
  O   -29.19390803704957    -28.13184997266320    -10.52834310033491
  O   -27.24160302950762    -25.73074863072526     -8.60560174548919
  O   -29.41822583679011    -25.23385275325552    -11.40001207103645
  H   -26.09187203903579    -26.03275926046461     -7.01301755230124
  H   -28.19006529279963    -27.17569772617600     -6.67843359336046
  H   -27.42195175525858    -28.91196497614248     -9.03390228040603
  H   -29.74153245850480    -26.98601751694128     -8.90333067086805
  H   -27.15435449166040    -26.63401369428573    -10.45231709243878
  H   -29.13745145935046    -24.51437883340779     -9.55745278408643
  H   -27.76177802683510    -24.28865345024288    -10.62571984362115
  H   -27.29998006555475    -29.30844329543260     -6.30087938704309
  H   -29.77732597288875    -29.46064593339971     -8.45677772519099
  H   -28.97113684004549    -25.61901625117694    -12.13931121046616
  C   -27.88036500099359    -26.67760148532614    -15.10788773093759
  C   -26.51835504318244    -26.60649021385610    -15.42218889224626
  N   -28.18588629817783    -28.02281888617348    -14.94432219962030
  N   -26.02878658863296    -27.91273872932020    -15.47029623184686
  C   -27.03935983841554    -28.78366477015745    -15.10304445177825
  H   -24.09079396428996    -27.35270418747652    -15.85505044244474
  H   -24.28907192547351    -28.27329505978373    -14.37615939263637
  C   -28.65398625136179    -25.54262908951557    -14.99310071568254
  C   -25.90035380274589    -25.38754928848790    -15.60489750112815
  C   -29.48985306176994    -28.59109789839289    -14.68660416503728
  H   -28.76361319857789    -29.30940888140423    -12.79903142756176
  H   -30.24536388386735    -27.86152932116404    -14.96541114620736
  H   -29.63227664484851    -29.44635858212079    -15.33847833775349
  O   -20.17051967578949    -30.29123579676573    -11.05004551682603
  H   -21.90130163796465    -30.03030485623508    -12.11852897851714
  H   -20.59640192439400    -30.19046231396332    -10.20584222153858
  N   -26.88987548493703    -30.02891867584849    -14.94365467533895
  H   -27.73109769196681    -30.48909614941884    -14.65302921536165
  C   -26.68165823204517    -24.23245300630735    -15.49229434614823
  C   -28.03109761395798    -24.30661924732841    -15.19745615310512
  H   -26.21452005881708    -23.26731997107126    -15.63531204905710
  H   -24.84313233931256    -25.30954878835438    -15.80944629102927
  H   -28.61577489576608    -23.40043018952784    -15.11247260916913
  H   -29.70315182335560    -25.59744458386859    -14.73973391473278
