13
Coordinates from ORCA-job p-fluorophenol_opt_orca
  C   0.52640127146025     -1.10989638824498      0.05391469804613
  C   -0.78588762238111     -1.14595643505874      0.51072068392104
  C   -1.52695736606771      0.01627919362547      0.51831170226224
  C   -0.99538731168751      1.21514651500213      0.08200213613698
  C   0.31362566399935      1.24826388820456     -0.37267984205432
  C   1.08091391674418      0.08578965878321     -0.38852276039314
  O   2.34610606341986      0.17305423446308     -0.83899434027180
  F   -2.78518209195916     -0.01519306637131      0.95633478501994
  H   1.11945708235237     -2.01586258720169      0.04406626627837
  H   -1.22771976752497     -2.06996686794861      0.85833461584392
  H   -1.60183214215458      2.11062251138652      0.09976751940844
  H   0.75180284100607      2.17446352623930     -0.71880427064215
  H   2.78455945279295     -0.66664418287896     -0.80445119355565
