13
Generated by autodE on: 2022-03-02. 
C     0.42400  -1.18380  -0.03750
C    -0.85180  -1.15310   0.50090
C    -1.54500   0.02860   0.57440
C    -0.94100   1.17380   0.10140
C     0.33080   1.13280  -0.43340
C     1.04310  -0.04920  -0.51500
O     2.32140  -0.05150  -1.05980
F    -2.80420   0.03100   1.11110
H     0.95000  -2.10700  -0.08820
H    -1.33950  -2.05600   0.87880
H    -1.47910   2.11060   0.15470
H     0.80850   2.04510  -0.80870
H     3.08270   0.07880  -0.37870
